           2

C      0.0000         0.0000         0.0000    
C     -1.6819         1.6819         1.6819    
           2

C    -0.44776E-02   -0.49916E-03    0.81843E-02
C     -1.6876         1.6810         1.6959    
           2

C    -0.83403E-02   -0.26149E-02    0.16143E-01
C     -1.6931         1.6791         1.7077    
           2

C    -0.12697E-01   -0.66303E-02    0.26234E-01
C     -1.6967         1.6746         1.7186    
           2

C    -0.16891E-01   -0.92876E-02    0.36422E-01
C     -1.6998         1.6713         1.7291    
           2

C    -0.19371E-01   -0.12221E-01    0.46720E-01
C     -1.7019         1.6669         1.7382    
           2

C    -0.21604E-01   -0.13171E-01    0.55960E-01
C     -1.7037         1.6634         1.7453    
           2

C    -0.25209E-01   -0.12850E-01    0.64264E-01
C     -1.7056         1.6597         1.7550    
           2

C    -0.29506E-01   -0.13117E-01    0.74636E-01
C     -1.7086         1.6544         1.7632    
           2

C    -0.33508E-01   -0.13533E-01    0.83936E-01
C     -1.7128         1.6472         1.7680    
           2

C    -0.35794E-01   -0.15956E-01    0.92134E-01
C     -1.7185         1.6412         1.7705    
           2

C    -0.38211E-01   -0.18472E-01    0.99350E-01
C     -1.7229         1.6360         1.7717    
           2

C    -0.43053E-01   -0.20141E-01    0.10344    
C     -1.7271         1.6316         1.7727    
           2

C    -0.48525E-01   -0.22283E-01    0.10612    
C     -1.7327         1.6269         1.7728    
           2

C    -0.57013E-01   -0.26555E-01    0.10671    
C     -1.7395         1.6247         1.7709    
           2

C    -0.66129E-01   -0.29732E-01    0.10767    
C     -1.7491         1.6254         1.7679    
