           2

C      0.0000         0.0000         0.0000    
C     -1.6819         1.6819         1.6819    
           2

C    -0.44442E-02    0.58851E-02   -0.20082E-02
C     -1.6865         1.6789         1.6758    
           2

C    -0.11725E-01    0.92367E-02   -0.31839E-02
C     -1.6924         1.6745         1.6693    
           2

C    -0.20373E-01    0.10778E-01   -0.43670E-02
C     -1.6979         1.6726         1.6648    
           2

C    -0.27267E-01    0.13114E-01   -0.62539E-02
C     -1.7017         1.6701         1.6579    
           2

C    -0.31787E-01    0.16842E-01   -0.10631E-01
C     -1.7055         1.6702         1.6514    
           2

C    -0.35354E-01    0.21526E-01   -0.15950E-01
C     -1.7126         1.6723         1.6453    
           2

C    -0.39614E-01    0.27182E-01   -0.19212E-01
C     -1.7200         1.6760         1.6403    
           2

C    -0.43634E-01    0.34593E-01   -0.22841E-01
C     -1.7270         1.6814         1.6370    
           2

C    -0.47386E-01    0.42483E-01   -0.26487E-01
C     -1.7323         1.6858         1.6352    
           2

C    -0.53403E-01    0.50289E-01   -0.28535E-01
C     -1.7403         1.6923         1.6341    
           2

C    -0.59671E-01    0.56112E-01   -0.30529E-01
C     -1.7486         1.6995         1.6343    
           2

C    -0.66811E-01    0.60259E-01   -0.33314E-01
C     -1.7558         1.7083         1.6360    
           2

C    -0.73027E-01    0.62986E-01   -0.34669E-01
C     -1.7636         1.7190         1.6393    
           2

C    -0.79600E-01    0.66157E-01   -0.34050E-01
C     -1.7707         1.7323         1.6429    
           2

C    -0.86492E-01    0.69280E-01   -0.30615E-01
C     -1.7764         1.7469         1.6479    
