           2

C      0.0000         0.0000         0.0000    
C     -1.6819         1.6819         1.6819    
           2

C    -0.66141E-02    0.24448E-02   -0.57074E-02
C     -1.6867         1.6937         1.6722    
           2

C    -0.14321E-01    0.29859E-02   -0.11547E-01
C     -1.6913         1.7059         1.6634    
           2

C    -0.23860E-01    0.59672E-02   -0.15937E-01
C     -1.6971         1.7170         1.6568    
           2

C    -0.32800E-01    0.10795E-01   -0.19917E-01
C     -1.7034         1.7290         1.6501    
           2

C    -0.39196E-01    0.14638E-01   -0.23684E-01
C     -1.7103         1.7403         1.6453    
           2

C    -0.45230E-01    0.17273E-01   -0.27009E-01
C     -1.7196         1.7510         1.6422    
           2

C    -0.48909E-01    0.20169E-01   -0.30767E-01
C     -1.7300         1.7628         1.6381    
           2

C    -0.53288E-01    0.25751E-01   -0.32365E-01
C     -1.7405         1.7719         1.6330    
           2

C    -0.52934E-01    0.34008E-01   -0.34798E-01
C     -1.7505         1.7780         1.6277    
           2

C    -0.50050E-01    0.44060E-01   -0.40717E-01
C     -1.7601         1.7820         1.6231    
           2

C    -0.48131E-01    0.54607E-01   -0.46337E-01
C     -1.7699         1.7871         1.6193    
           2

C    -0.46799E-01    0.64521E-01   -0.50331E-01
C     -1.7771         1.7938         1.6147    
           2

C    -0.46919E-01    0.73900E-01   -0.52408E-01
C     -1.7813         1.7991         1.6107    
           2

C    -0.46424E-01    0.84024E-01   -0.54999E-01
C     -1.7861         1.8060         1.6054    
           2

C    -0.46378E-01    0.94048E-01   -0.56992E-01
C     -1.7917         1.8108         1.5997    
