           2

C      0.0000         0.0000         0.0000    
C     -1.6819         1.6819         1.6819    
           2

C     0.81317E-02   -0.93786E-03    0.84209E-03
C     -1.6842         1.6835         1.6871    
           2

C     0.14983E-01   -0.28143E-02   -0.44406E-03
C     -1.6844         1.6838         1.6946    
           2

C     0.18162E-01   -0.63114E-02   -0.20463E-02
C     -1.6847         1.6844         1.7010    
           2

C     0.22554E-01   -0.94931E-02   -0.27667E-02
C     -1.6845         1.6837         1.7074    
           2

C     0.28596E-01   -0.10292E-01   -0.19735E-02
C     -1.6841         1.6821         1.7115    
           2

C     0.33116E-01   -0.10940E-01    0.22714E-02
C     -1.6834         1.6829         1.7165    
           2

C     0.37156E-01   -0.10372E-01    0.67788E-02
C     -1.6800         1.6843         1.7212    
           2

C     0.40149E-01   -0.96876E-02    0.12429E-01
C     -1.6764         1.6846         1.7268    
           2

C     0.41091E-01   -0.11431E-01    0.19535E-01
C     -1.6719         1.6843         1.7310    
           2

C     0.40348E-01   -0.11679E-01    0.26126E-01
C     -1.6662         1.6856         1.7347    
           2

C     0.37523E-01   -0.93766E-02    0.32887E-01
C     -1.6580         1.6874         1.7364    
           2

C     0.31347E-01   -0.98900E-02    0.38486E-01
C     -1.6474         1.6883         1.7374    
           2

C     0.25098E-01   -0.97931E-02    0.45076E-01
C     -1.6381         1.6874         1.7371    
           2

C     0.17625E-01   -0.10127E-01    0.52574E-01
C     -1.6311         1.6856         1.7375    
           2

C     0.11392E-01   -0.87533E-02    0.59955E-01
C     -1.6253         1.6837         1.7371    
