           2
 
C      0.0000         0.0000         0.0000    
C     -1.6819         1.6819         1.6819    
           2
 
C     0.55687E-02    0.64230E-02    0.52292E-02
C     -1.6843         1.6799         1.6912    
           2
 
C     0.93803E-02    0.11717E-01    0.10867E-01
C     -1.6856         1.6776         1.7003    
           2
 
C     0.12779E-01    0.14875E-01    0.14964E-01
C     -1.6862         1.6776         1.7080    
           2
 
C     0.18481E-01    0.18230E-01    0.17275E-01
C     -1.6865         1.6771         1.7156    
           2
 
C     0.24666E-01    0.19868E-01    0.19889E-01
C     -1.6834         1.6764         1.7229    
           2
 
C     0.28821E-01    0.19045E-01    0.22915E-01
C     -1.6785         1.6736         1.7292    
           2
 
C     0.32375E-01    0.16149E-01    0.27028E-01
C     -1.6727         1.6702         1.7321    
           2
 
C     0.34664E-01    0.10344E-01    0.31967E-01
C     -1.6665         1.6700         1.7336    
           2
 
C     0.35876E-01    0.30150E-02    0.38981E-01
C     -1.6595         1.6683         1.7337    
           2
 
C     0.37329E-01   -0.39273E-02    0.46837E-01
C     -1.6536         1.6677         1.7327    
           2
 
C     0.38226E-01   -0.12263E-01    0.54606E-01
C     -1.6443         1.6677         1.7367    
           2
 
C     0.38551E-01   -0.18389E-01    0.62632E-01
C     -1.6339         1.6683         1.7418    
           2
 
C     0.39618E-01   -0.24867E-01    0.68323E-01
C     -1.6232         1.6677         1.7463    
           2
 
C     0.41845E-01   -0.31056E-01    0.72860E-01
C     -1.6122         1.6658         1.7505    
           2
 
C     0.45704E-01   -0.37076E-01    0.77240E-01
C     -1.6004         1.6649         1.7528    
