           2
 
C      0.0000         0.0000         0.0000    
C     -1.6819         1.6819         1.6819    
           2
 
C     0.63884E-02    0.81456E-02    0.10254E-01
C     -1.6846         1.6778         1.6875    
           2
 
C     0.12281E-01    0.14894E-01    0.18432E-01
C     -1.6859         1.6755         1.6943    
           2
 
C     0.20666E-01    0.19378E-01    0.25813E-01
C     -1.6862         1.6747         1.7005    
           2
 
C     0.31621E-01    0.22828E-01    0.31711E-01
C     -1.6878         1.6747         1.7059    
           2
 
C     0.39620E-01    0.25070E-01    0.37592E-01
C     -1.6897         1.6751         1.7109    
           2
 
C     0.43091E-01    0.24996E-01    0.44214E-01
C     -1.6909         1.6762         1.7158    
           2
 
C     0.44513E-01    0.23811E-01    0.50324E-01
C     -1.6916         1.6797         1.7202    
           2
 
C     0.45214E-01    0.21283E-01    0.56657E-01
C     -1.6913         1.6840         1.7257    
           2
 
C     0.43244E-01    0.16242E-01    0.61425E-01
C     -1.6895         1.6915         1.7321    
           2
 
C     0.40511E-01    0.10945E-01    0.65453E-01
C     -1.6867         1.6995         1.7379    
           2
 
C     0.36202E-01    0.75763E-02    0.68164E-01
C     -1.6835         1.7060         1.7444    
           2
 
C     0.31286E-01    0.56339E-02    0.69648E-01
C     -1.6790         1.7129         1.7499    
           2
 
C     0.28319E-01    0.47247E-02    0.67905E-01
C     -1.6746         1.7203         1.7540    
           2
 
C     0.26165E-01    0.32679E-02    0.65059E-01
C     -1.6720         1.7275         1.7579    
           2
 
C     0.22749E-01    0.22057E-02    0.63817E-01
C     -1.6706         1.7344         1.7626    
