           2
 
C     0.15145E-05    0.41829E-04   -0.14549E-04
C     -1.6819         1.6820         1.6819    
           2
 
C    -0.15963E-04    0.85475E-04   -0.20586E-04
C     -1.6819         1.6820         1.6819    
           2
 
C    -0.28004E-04    0.13627E-03   -0.17086E-04
C     -1.6819         1.6821         1.6819    
           2
 
C    -0.47661E-04    0.15694E-03   -0.47868E-05
C     -1.6819         1.6822         1.6818    
           2
 
C    -0.57030E-04    0.17189E-03    0.63659E-05
C     -1.6819         1.6823         1.6818    
           2
 
C    -0.72425E-04    0.15449E-03    0.18193E-04
C     -1.6819         1.6823         1.6818    
           2
 
C    -0.97206E-04    0.15934E-03    0.18418E-04
C     -1.6819         1.6824         1.6818    
           2
 
C    -0.12282E-03    0.17835E-03    0.32985E-04
C     -1.6818         1.6824         1.6818    
           2
 
C    -0.13776E-03    0.17134E-03    0.37915E-04
C     -1.6818         1.6825         1.6818    
           2
 
C    -0.15448E-03    0.15030E-03    0.35111E-04
C     -1.6818         1.6826         1.6818    
           2
 
C    -0.18191E-03    0.12712E-03    0.45356E-04
C     -1.6818         1.6827         1.6817    
           2
 
C    -0.21006E-03    0.10680E-03    0.63404E-04
C     -1.6818         1.6828         1.6817    
           2
 
C    -0.21786E-03    0.90306E-04    0.64928E-04
C     -1.6819         1.6828         1.6817    
           2
 
C    -0.23682E-03    0.81526E-04    0.10230E-03
C     -1.6819         1.6829         1.6816    
           2
 
C    -0.26455E-03    0.70480E-04    0.14540E-03
C     -1.6819         1.6830         1.6816    
           2
 
C    -0.29799E-03    0.25556E-04    0.17437E-03
C     -1.6819         1.6831         1.6815    
