           2
 
C      0.0000         0.0000         0.0000    
C     -1.6819         1.6819         1.6819    
           2
 
C    -0.16423E-02    0.56339E-02    0.63954E-02
C     -1.6694         1.6807         1.6820    
           2
 
C    -0.10278E-02    0.10840E-01    0.12695E-01
C     -1.6577         1.6812         1.6836    
           2
 
C     0.10741E-02    0.13343E-01    0.17492E-01
C     -1.6452         1.6819         1.6854    
           2
 
C     0.60059E-03    0.16227E-01    0.22942E-01
C     -1.6331         1.6825         1.6872    
           2
 
C    -0.22923E-02    0.19564E-01    0.26056E-01
C     -1.6232         1.6845         1.6893    
           2
 
C    -0.55108E-02    0.22041E-01    0.29446E-01
C     -1.6149         1.6875         1.6918    
           2
 
C    -0.87794E-02    0.24783E-01    0.31897E-01
C     -1.6087         1.6902         1.6932    
           2
 
C    -0.81161E-02    0.27913E-01    0.31455E-01
C     -1.6072         1.6931         1.6946    
           2
 
C    -0.70215E-02    0.32558E-01    0.32760E-01
C     -1.6078         1.6960         1.6974    
           2
 
C    -0.59921E-02    0.37802E-01    0.33928E-01
C     -1.6088         1.7001         1.7022    
           2
 
C    -0.25970E-02    0.42591E-01    0.33251E-01
C     -1.6116         1.7044         1.7090    
           2
 
C     0.95797E-03    0.48592E-01    0.32014E-01
C     -1.6155         1.7077         1.7151    
           2
 
C     0.62820E-02    0.55281E-01    0.30120E-01
C     -1.6202         1.7121         1.7215    
           2
 
C     0.14136E-01    0.59667E-01    0.26858E-01
C     -1.6264         1.7201         1.7269    
           2
 
C     0.20154E-01    0.63129E-01    0.22283E-01
C     -1.6318         1.7271         1.7286    
