           2
 
C      0.0000         0.0000         0.0000    
C     -1.6819         1.6819         1.6819    
           2
 
C    -0.57585E-02   -0.15766E-02   -0.85906E-02
C     -1.6914         1.6886         1.6889    
           2
 
C    -0.99175E-02   -0.24620E-02   -0.16939E-01
C     -1.7006         1.6953         1.6942    
           2
 
C    -0.12256E-01   -0.51036E-02   -0.23497E-01
C     -1.7082         1.7020         1.7015    
           2
 
C    -0.13834E-01   -0.82097E-02   -0.31758E-01
C     -1.7160         1.7073         1.7077    
           2
 
C    -0.15611E-01   -0.12010E-01   -0.38780E-01
C     -1.7251         1.7153         1.7122    
           2
 
C    -0.17585E-01   -0.15414E-01   -0.44484E-01
C     -1.7330         1.7247         1.7158    
           2
 
C    -0.21410E-01   -0.19700E-01   -0.49606E-01
C     -1.7412         1.7361         1.7183    
           2
 
C    -0.24978E-01   -0.21482E-01   -0.56061E-01
C     -1.7484         1.7480         1.7193    
           2
 
C    -0.29972E-01   -0.20894E-01   -0.62199E-01
C     -1.7544         1.7579         1.7179    
           2
 
C    -0.36639E-01   -0.17256E-01   -0.65046E-01
C     -1.7608         1.7632         1.7152    
           2
 
C    -0.43036E-01   -0.11350E-01   -0.66380E-01
C     -1.7657         1.7679         1.7108    
           2
 
C    -0.49597E-01   -0.49796E-02   -0.65876E-01
C     -1.7709         1.7734         1.7056    
           2
 
C    -0.54477E-01    0.40703E-02   -0.64359E-01
C     -1.7741         1.7783         1.7005    
           2
 
C    -0.58334E-01    0.14940E-01   -0.58832E-01
C     -1.7770         1.7818         1.6969    
           2
 
C    -0.60114E-01    0.26826E-01   -0.49786E-01
C     -1.7796         1.7836         1.6912    
