           2
 
C      0.0000         0.0000         0.0000    
C     -1.6819         1.6819         1.6819    
           2
 
C    -0.11829E-02    0.49249E-02   -0.23065E-03
C     -1.6832         1.6734         1.6754    
           2
 
C    -0.17308E-02    0.95610E-02   -0.19526E-02
C     -1.6821         1.6655         1.6715    
           2
 
C    -0.10268E-02    0.12819E-01   -0.28308E-02
C     -1.6774         1.6593         1.6700    
           2
 
C     0.55198E-03    0.16375E-01   -0.56774E-03
C     -1.6736         1.6544         1.6690    
           2
 
C     0.43787E-03    0.22068E-01    0.56342E-02
C     -1.6696         1.6516         1.6701    
           2
 
C    -0.92994E-03    0.27638E-01    0.12099E-01
C     -1.6640         1.6488         1.6711    
           2
 
C    -0.35632E-02    0.33157E-01    0.17480E-01
C     -1.6590         1.6471         1.6727    
           2
 
C    -0.73294E-02    0.36791E-01    0.24690E-01
C     -1.6582         1.6435         1.6744    
           2
 
C    -0.12159E-01    0.37227E-01    0.30779E-01
C     -1.6573         1.6432         1.6754    
           2
 
C    -0.17559E-01    0.34860E-01    0.36768E-01
C     -1.6581         1.6444         1.6798    
           2
 
C    -0.22327E-01    0.29076E-01    0.42420E-01
C     -1.6602         1.6472         1.6882    
           2
 
C    -0.26391E-01    0.21043E-01    0.47040E-01
C     -1.6625         1.6494         1.6974    
           2
 
C    -0.28173E-01    0.10940E-01    0.49802E-01
C     -1.6658         1.6529         1.7059    
           2
 
C    -0.29240E-01   -0.47254E-03    0.52209E-01
C     -1.6707         1.6559         1.7147    
           2
 
C    -0.29808E-01   -0.12557E-01    0.54067E-01
C     -1.6774         1.6573         1.7210    
