           2
 
C      0.0000         0.0000         0.0000    
C     -1.6819         1.6819         1.6819    
           2
 
C    -0.56909E-02   -0.55441E-02    0.42855E-02
C     -1.6842         1.6866         1.6835    
           2
 
C    -0.11931E-01   -0.11198E-01    0.64644E-02
C     -1.6873         1.6934         1.6862    
           2
 
C    -0.17852E-01   -0.14887E-01    0.91539E-02
C     -1.6899         1.7004         1.6909    
           2
 
C    -0.23591E-01   -0.16859E-01    0.16209E-01
C     -1.6919         1.7052         1.6951    
           2
 
C    -0.29912E-01   -0.18809E-01    0.23315E-01
C     -1.6961         1.7085         1.6983    
           2
 
C    -0.35174E-01   -0.19774E-01    0.30231E-01
C     -1.6994         1.7101         1.7016    
           2
 
C    -0.39798E-01   -0.19414E-01    0.37391E-01
C     -1.7017         1.7102         1.7078    
           2
 
C    -0.43711E-01   -0.19717E-01    0.43669E-01
C     -1.7035         1.7090         1.7150    
           2
 
C    -0.46605E-01   -0.20909E-01    0.47771E-01
C     -1.7081         1.7075         1.7252    
           2
 
C    -0.49426E-01   -0.22712E-01    0.50214E-01
C     -1.7131         1.7060         1.7343    
           2
 
C    -0.53266E-01   -0.26651E-01    0.52985E-01
C     -1.7166         1.7031         1.7439    
           2
 
C    -0.55203E-01   -0.29299E-01    0.55514E-01
C     -1.7200         1.7000         1.7531    
           2
 
C    -0.56898E-01   -0.31132E-01    0.55782E-01
C     -1.7231         1.6993         1.7625    
           2
 
C    -0.59081E-01   -0.33849E-01    0.55594E-01
C     -1.7262         1.6991         1.7696    
           2
 
C    -0.61865E-01   -0.36901E-01    0.52767E-01
C     -1.7291         1.6990         1.7761    
