    5

Al    0.0000000000    0.0000000000    0.0000000000
Al    2.8634511422    0.0000000000    0.0000000000
Al    0.0000000000    2.8634511422    0.0000000000
Al    2.8634511422    2.8634511422    0.0000000000
 H    0.0000000000    0.0000000000    1.6460341155
    5

Al    0.0000000000    0.0000000000    0.0000000000
Al    2.8634511422    0.0000000000    0.0000000000
Al    0.0000000000    2.8634511422    0.0000000000
Al    2.8634511422    2.8634511422    0.0000000000
 H    0.7397936591    0.7397936591    1.3167613339
    5

Al    0.0000000000    0.0000000000    0.0000000000
Al    2.8634511422    0.0000000000    0.0000000000
Al    0.0000000000    2.8634511422    0.0000000000
Al    2.8634511422    2.8634511422    0.0000000000
 H    1.4317065234    1.4317065234    0.8154357220
    5

Al    0.0000000000    0.0000000000    0.0000000000
Al    2.8634511422    0.0000000000    0.0000000000
Al    0.0000000000    2.8634511422    0.0000000000
Al    2.8634511422    2.8634511422    0.0000000000
 H    2.1236160113    2.1236160113    1.3166006708
    5

Al    0.0000000000    0.0000000000    0.0000000000
Al    2.8634511422    0.0000000000    0.0000000000
Al    0.0000000000    2.8634511422    0.0000000000
Al    2.8634511422    2.8634511422    0.0000000000
 H    2.8634511422    2.8634511422    1.6460341155
