    5

Al    0.0000000000    0.0000000000    0.0000000000
Al    2.8634511422    0.0000000000    0.0000000000
Al    0.0000000000    2.8634511422    0.0000000000
Al    2.8634511422    2.8634511422    0.0000000000
 H    0.0000000000    0.0000000000    1.6460341155
    5

Al    0.0000000000    0.0000000000    0.0000000000
Al    2.8634511422    0.0000000000    0.0000000000
Al    0.0000000000    2.8634511422    0.0000000000
Al    2.8634511422    2.8634511422    0.0000000000
 H    0.7418504469    0.7418504469    1.3085220693
    5

Al    0.0000000000    0.0000000000    0.0000000000
Al    2.8634511422    0.0000000000    0.0000000000
Al    0.0000000000    2.8634511422    0.0000000000
Al    2.8634511422    2.8634511422    0.0000000000
 H    1.4315238340    1.4315238340    0.8073510276
    5

Al    0.0000000000    0.0000000000    0.0000000000
Al    2.8634511422    0.0000000000    0.0000000000
Al    0.0000000000    2.8634511422    0.0000000000
Al    2.8634511422    2.8634511422    0.0000000000
 H    2.1221609450    2.1221609450    1.3087160813
    5

Al    0.0000000000    0.0000000000    0.0000000000
Al    2.8634511422    0.0000000000    0.0000000000
Al    0.0000000000    2.8634511422    0.0000000000
Al    2.8634511422    2.8634511422    0.0000000000
 H    2.8634511422    2.8634511422    1.6460341155
