    5

Al    0.0000000000    0.0000000000    0.0000000000
Al    2.8634511422    0.0000000000    0.0000000000
Al    0.0000000000    2.8634511422    0.0000000000
Al    2.8634511422    2.8634511422    0.0000000000
 H    0.0000000000    0.0000000000    1.6460341155
    5

Al    0.0000000000    0.0000000000    0.0000000000
Al    2.8634511422    0.0000000000    0.0000000000
Al    0.0000000000    2.8634511422    0.0000000000
Al    2.8634511422    2.8634511422    0.0000000000
 H    0.7476254112    0.7476254112    1.3144056501
    5

Al    0.0000000000    0.0000000000    0.0000000000
Al    2.8634511422    0.0000000000    0.0000000000
Al    0.0000000000    2.8634511422    0.0000000000
Al    2.8634511422    2.8634511422    0.0000000000
 H    1.4316587850    1.4316587850    0.7564061014
    5

Al    0.0000000000    0.0000000000    0.0000000000
Al    2.8634511422    0.0000000000    0.0000000000
Al    0.0000000000    2.8634511422    0.0000000000
Al    2.8634511422    2.8634511422    0.0000000000
 H    2.1157775038    2.1157775038    1.3143273121
    5

Al    0.0000000000    0.0000000000    0.0000000000
Al    2.8634511422    0.0000000000    0.0000000000
Al    0.0000000000    2.8634511422    0.0000000000
Al    2.8634511422    2.8634511422    0.0000000000
 H    2.8634511422    2.8634511422    1.6460341155
