    5

Al    0.0000000000    0.0000000000    0.0000000000
Al    2.8634511422    0.0000000000    0.0000000000
Al    0.0000000000    2.8634511422    0.0000000000
Al    2.8634511422    2.8634511422    0.0000000000
 H    0.0000000000    0.0000000000    1.6460341155
    5

Al    0.0000000000    0.0000000000    0.0000000000
Al    2.8634511422    0.0000000000    0.0000000000
Al    0.0000000000    2.8634511422    0.0000000000
Al    2.8634511422    2.8634511422    0.0000000000
 H    0.7408346976    0.7408346976    1.3060814671
    5

Al    0.0000000000    0.0000000000    0.0000000000
Al    2.8634511422    0.0000000000    0.0000000000
Al    0.0000000000    2.8634511422    0.0000000000
Al    2.8634511422    2.8634511422    0.0000000000
 H    1.4333676681    1.4333676681    0.7976494922
    5

Al    0.0000000000    0.0000000000    0.0000000000
Al    2.8634511422    0.0000000000    0.0000000000
Al    0.0000000000    2.8634511422    0.0000000000
Al    2.8634511422    2.8634511422    0.0000000000
 H    2.1234959045    2.1234959045    1.3068960077
    5

Al    0.0000000000    0.0000000000    0.0000000000
Al    2.8634511422    0.0000000000    0.0000000000
Al    0.0000000000    2.8634511422    0.0000000000
Al    2.8634511422    2.8634511422    0.0000000000
 H    2.8634511422    2.8634511422    1.6460341155
