    5

Al    0.0000000000    0.0000000000    0.0000000000
Al    2.8634511422    0.0000000000    0.0000000000
Al    0.0000000000    2.8634511422    0.0000000000
Al    2.8634511422    2.8634511422    0.0000000000
 H    0.0000000000    0.0000000000    1.6460341155
    5

Al    0.0000000000    0.0000000000    0.0000000000
Al    2.8634511422    0.0000000000    0.0000000000
Al    0.0000000000    2.8634511422    0.0000000000
Al    2.8634511422    2.8634511422    0.0000000000
 H    0.7454223762    0.7454223762    1.3136687632
    5

Al    0.0000000000    0.0000000000    0.0000000000
Al    2.8634511422    0.0000000000    0.0000000000
Al    0.0000000000    2.8634511422    0.0000000000
Al    2.8634511422    2.8634511422    0.0000000000
 H    1.4317148521    1.4317148521    0.7780044910
    5

Al    0.0000000000    0.0000000000    0.0000000000
Al    2.8634511422    0.0000000000    0.0000000000
Al    0.0000000000    2.8634511422    0.0000000000
Al    2.8634511422    2.8634511422    0.0000000000
 H    2.1180375092    2.1180375092    1.3136713607
    5

Al    0.0000000000    0.0000000000    0.0000000000
Al    2.8634511422    0.0000000000    0.0000000000
Al    0.0000000000    2.8634511422    0.0000000000
Al    2.8634511422    2.8634511422    0.0000000000
 H    2.8634511422    2.8634511422    1.6460341155
